@<TRIPOS>MOLECULE
KAW_800_3BKL
   69    72     0     0     0
SMALL
USER_CHARGES

@<TRIPOS>ATOM
      1 C1         48.6220   45.0350   51.7870 C.ar      1 <0>        -0.0617
      2 C2         43.5040   39.7850   50.2690 C.ar      1 <0>        -0.0617
      3 C3         48.2660   46.3090   51.3850 C.ar      1 <0>        -0.0615
      4 C4         48.4170   43.9670   50.9330 C.ar      1 <0>        -0.0615
      5 C5         42.8970   40.7720   51.0230 C.ar      1 <0>        -0.0610
      6 C6         44.2790   40.1280   49.1770 C.ar      1 <0>        -0.0610
      7 C7         41.7690   46.5420   39.3440 C.ar      1 <0>        -0.0611
      8 C8         41.3680   47.6450   38.5800 C.ar      1 <0>        -0.0600
      9 C9         47.7080   46.5100   50.1360 C.ar      1 <0>        -0.0585
     10 C10        47.8590   44.1770   49.6860 C.ar      1 <0>        -0.0585
     11 C11        43.0610   42.1030   50.6870 C.ar      1 <0>        -0.0496
     12 C12        44.4470   41.4580   48.8390 C.ar      1 <0>        -0.0496
     13 C13        43.0900   46.3710   39.7150 C.ar      1 <0>        -0.0525
     14 C14        42.2600   48.5980   38.1680 C.ar      1 <0>        -0.0400
     15 C15        45.7960   48.6270   38.8600 C.2       1 <0>        -0.0024
     16 C16        44.6390   47.4650   44.6780 C.3       1 <0>         0.0289
     17 C17        45.0680   47.2310   46.1390 C.3       1 <0>         0.0111
     18 C18        46.8750   45.6680   47.9210 C.3       1 <0>        -0.0042
     19 C19        46.3430   46.5210   40.2200 C.3       1 <0>        -0.0021
     20 C20        47.4990   45.4480   49.2710 C.ar      1 <0>        -0.0454
     21 C21        43.8360   42.4450   49.5920 C.ar      1 <0>         0.0367
     22 C22        44.0270   47.3280   39.3110 C.ar      1 <0>         0.0005
     23 C23        43.5930   48.4270   38.5420 C.ar      1 <0>         0.0385
     24 C24        45.4400   47.4740   39.4980 C.2       1 <0>        -0.0226
     25 C25        46.8120   47.0180   41.5880 C.3       1 <0>         0.0666
     26 C26        45.3540   45.5030   47.9470 C.3       1 <0>         0.0808
     27 C27        45.8720   47.2920   43.7970 C.2       1 <0>         0.2137
     28 C28        44.0130   43.9120   49.1980 C.2       1 <0>         0.2445
     29 C29        47.5730   48.3370   41.4420 C.2       1 <0>         0.0623
     30 C30        44.7160   45.8110   46.5900 C.3       1 <0>         0.1840
     31 N1         44.6900   49.2040   38.2820 N.pl3     1 <0>        -0.3198
     32 N2         45.6760   47.1780   42.4880 N.am      1 <0>        -0.3070
     33 N3         45.0470   44.1520   48.4000 N.am      1 <0>        -0.3030
     34 O1         45.1310   44.8520   45.6130 O.3       1 <0>        -0.3632
     35 O2         43.2970   45.7300   46.7390 O.3       1 <0>        -0.3632
     36 O3         46.9890   49.3890   41.7800 O.co2     1 <0>        -0.5479
     37 O4         46.9960   47.2770   44.2980 O.2       1 <0>        -0.2758
     38 O5         43.2210   44.7820   49.5600 O.2       1 <0>        -0.2702
     39 O6         48.7380   48.3000   40.9940 O.co2     1 <0>        -0.5479
     40 H1         49.0576   44.8749   52.7622 H         1 <0>         0.0618
     41 H2         43.3727   38.7461   50.5331 H         1 <0>         0.0618
     42 H3         48.4238   47.1477   52.0469 H         1 <0>         0.0618
     43 H4         48.6928   42.9690   51.2402 H         1 <0>         0.0618
     44 H5         42.2930   40.5026   51.8768 H         1 <0>         0.0618
     45 H6         44.7533   39.3570   48.5879 H         1 <0>         0.0618
     46 H7         41.0336   45.8121   39.6488 H         1 <0>         0.0618
     47 H8         40.3276   47.7464   38.3087 H         1 <0>         0.0618
     48 H9         47.4313   47.5083   49.8305 H         1 <0>         0.0620
     49 H10        47.7014   43.3372   49.0255 H         1 <0>         0.0620
     50 H11        42.5862   42.8732   51.2767 H         1 <0>         0.0625
     51 H12        45.0549   41.7264   47.9876 H         1 <0>         0.0625
     52 H13        43.3918   45.5174   40.3037 H         1 <0>         0.0624
     53 H14        41.9452   49.4463   37.5784 H         1 <0>         0.0636
     54 H15        46.7983   49.0269   38.8158 H         1 <0>         0.0784
     55 H16        43.8657   46.7372   44.3911 H         1 <0>         0.0360
     56 H17        44.2328   48.4807   44.5625 H         1 <0>         0.0360
     57 H18        46.1557   47.3734   46.2202 H         1 <0>         0.0322
     58 H19        44.5462   47.9519   46.7855 H         1 <0>         0.0322
     59 H20        47.1095   46.6907   47.5906 H         1 <0>         0.0333
     60 H21        47.2939   44.9322   47.2188 H         1 <0>         0.0333
     61 H22        45.7920   45.5811   40.3717 H         1 <0>         0.0335
     62 H23        47.2335   46.3586   39.5950 H         1 <0>         0.0335
     63 H24        47.4928   46.2694   42.0194 H         1 <0>         0.0563
     64 H25        44.9210   46.2327   48.6470 H         1 <0>         0.0554
     65 H26        44.6872   50.0546   37.7561 H         1 <0>         0.1516
     66 H27        44.7469   47.2020   42.1189 H         1 <0>         0.1493
     67 H28        45.6257   43.3919   48.1044 H         1 <0>         0.1495
     68 H29        44.9045   43.9785   45.9099 H         1 <0>         0.2128
     69 H30        43.0868   45.4312   47.6159 H         1 <0>         0.2128
@<TRIPOS>BOND
     1    1    3 ar
     2    1    4 ar
     3    2    5 ar
     4    2    6 ar
     5    3    9 ar
     6    4   10 ar
     7    5   11 ar
     8    6   12 ar
     9    7    8 ar
    10    7   13 ar
    11    8   14 ar
    12    9   20 ar
    13   10   20 ar
    14   11   21 ar
    15   12   21 ar
    16   13   22 ar
    17   14   23 ar
    18   15   24 2
    19   15   31 1
    20   16   17 1
    21   16   27 1
    22   17   30 1
    23   18   20 1
    24   18   26 1
    25   19   24 1
    26   19   25 1
    27   21   28 1
    28   22   23 ar
    29   22   24 1
    30   23   31 1
    31   25   29 1
    32   25   32 1
    33   26   30 1
    34   26   33 1
    35   27   32 am
    36   27   37 2
    37   28   33 am
    38   28   38 2
    39   29   36 1
    40   29   39 2
    41   30   34 1
    42   30   35 1
    43    1   40 1
    44    2   41 1
    45    3   42 1
    46    4   43 1
    47    5   44 1
    48    6   45 1
    49    7   46 1
    50    8   47 1
    51    9   48 1
    52   10   49 1
    53   11   50 1
    54   12   51 1
    55   13   52 1
    56   14   53 1
    57   15   54 1
    58   16   55 1
    59   16   56 1
    60   17   57 1
    61   17   58 1
    62   18   59 1
    63   18   60 1
    64   19   61 1
    65   19   62 1
    66   25   63 1
    67   26   64 1
    68   31   65 1
    69   32   66 1
    70   33   67 1
    71   34   68 1
    72   35   69 1
